{"hash":"A173769EBCCECB93D10A1CB5B65489720DBA176C4794463F001388C686E0EE4A","doc":{"name":"fastnui.trizwit.com/components/","ast":[{"import":{"module":"fastnui.trizwit.com/assets","alias":"assets","line-number":0,"exports":null,"exposing":null}},{"import":{"module":"fastnui.trizwit.com/index","alias":"index","line-number":0,"exports":null,"exposing":null}},{"import":{"module":"fastnui.trizwit.com/lib","alias":"lib","line-number":0,"exports":null,"exposing":null}},{"import":{"module":"fastn-community.github.io/opensans-typography","alias":"opensans-typography","line-number":0,"exports":null,"exposing":null}},{"import":{"module":"shaheen-senpai.github.io/fastn-cs-tail","alias":"fastn-cs-tail","line-number":0,"exports":null,"exposing":null}},{"import":{"module":"fastn-community.github.io/code-block","alias":"cb","line-number":0,"exports":null,"exposing":null}},{"import":{"module":"fastnui.trizwit.com/assets","alias":"assets","line-number":1,"exports":null,"exposing":null}},{"import":{"module":"fastnui.trizwit.com/lib","alias":"lib","line-number":2,"exports":null,"exposing":null}},{"import":{"module":"fastn-community.github.io/code-block","alias":"cb","line-number":3,"exports":null,"exposing":null}},{"component-invocation":{"name":"lib.page","properties":[],"iteration":null,"condition":null,"events":[],"children":[{"name":"lib.container-wrapper","properties":[],"iteration":null,"condition":{"expression":"{ !lib.code-open }","line-number":9},"events":[],"children":[{"name":"lib.blog-1","properties":[{"value":{"string-value":{"value":"$assets.files.images.openfastn.png","line-number":12,"source":"Default"}},"source":{"header":{"name":"pic","mutable":false}},"condition":null,"line-number":12},{"value":{"string-value":{"value":"Open Source Contribution","line-number":13,"source":"Default"}},"source":{"header":{"name":"head","mutable":false}},"condition":null,"line-number":13},{"value":{"string-value":{"value":"Learn more","line-number":14,"source":"Default"}},"source":{"header":{"name":"cta-text","mutable":false}},"condition":null,"line-number":14},{"value":{"string-value":{"value":"https://trizwit.github.io/OpenFASTN/","line-number":15,"source":"Default"}},"source":{"header":{"name":"cta-link","mutable":false}},"condition":null,"line-number":15},{"value":{"string-value":{"value":"OPEN FASTN Campaign","line-number":11,"source":"Default"}},"source":"Caption","condition":null,"line-number":11},{"value":{"string-value":{"value":"Open FASTN is a two week long open source contribution by FASTN Community and Trizwit Labs","line-number":18,"source":"Body"}},"source":"Body","condition":null,"line-number":18}],"iteration":null,"condition":null,"events":[],"children":[],"line-number":11},{"name":"lib.blog-1","properties":[{"value":{"string-value":{"value":"$assets.files.images.coming-soon.png","line-number":20,"source":"Default"}},"source":{"header":{"name":"pic","mutable":false}},"condition":null,"line-number":20},{"value":{"string-value":{"value":"Category","line-number":21,"source":"Default"}},"source":{"header":{"name":"head","mutable":false}},"condition":null,"line-number":21},{"value":{"string-value":{"value":"Learn more","line-number":22,"source":"Default"}},"source":{"header":{"name":"cta-text","mutable":false}},"condition":null,"line-number":22},{"value":{"string-value":{"value":"Coming Soon","line-number":19,"source":"Default"}},"source":"Caption","condition":null,"line-number":19},{"value":{"string-value":{"value":"Some exciting Hackathons, Workshops, Open Source Contributions, Competitions are coming soon","line-number":25,"source":"Body"}},"source":"Body","condition":null,"line-number":25}],"iteration":null,"condition":null,"events":[],"children":[],"line-number":19},{"name":"lib.blog-1","properties":[{"value":{"string-value":{"value":"$assets.files.images.coming-soon.png","line-number":27,"source":"Default"}},"source":{"header":{"name":"pic","mutable":false}},"condition":null,"line-number":27},{"value":{"string-value":{"value":"Category","line-number":28,"source":"Default"}},"source":{"header":{"name":"head","mutable":false}},"condition":null,"line-number":28},{"value":{"string-value":{"value":"Learn more","line-number":29,"source":"Default"}},"source":{"header":{"name":"cta-text","mutable":false}},"condition":null,"line-number":29},{"value":{"string-value":{"value":"Coming Soon","line-number":26,"source":"Default"}},"source":"Caption","condition":null,"line-number":26},{"value":{"string-value":{"value":"Some exciting Hackathons, Workshops, Open Source Contributions, Competitions are coming soon","line-number":32,"source":"Body"}},"source":"Body","condition":null,"line-number":32}],"iteration":null,"condition":null,"events":[],"children":[],"line-number":26}],"line-number":8},{"name":"lib.container-wrapper","properties":[],"iteration":null,"condition":{"expression":"{ lib.code-open }","line-number":36},"events":[],"children":[{"name":"cb.code","properties":[{"value":{"string-value":{"value":"ftd","line-number":39,"source":"Default"}},"source":{"header":{"name":"lang","mutable":false}},"condition":null,"line-number":39},{"value":{"string-value":{"value":"-- lib.container-wrapper:\n\n-- lib.blog-1: Raclette Blueberry Nextious Level\npic: $assets.files.images.720x400.png\nhead: Category\ncta-text: Learn more\n\nPhoto booth fam kinfolk cold-pressed sriracha leggings jianbing microdosing tousled \nwaistcoat.\n\n-- lib.blog-1: Keyvalue Interview and Test on May 22 2023\npic: $assets.files.images.720x400.png\nhead: Category\ncta-text: Learn more\n\nPhoto booth fam kinfolk cold-pressed sriracha leggings jianbing microdosing tousled \nwaistcoat.\n\n-- lib.blog-1: Raclette Blueberry Nextious Level\npic: $assets.files.images.720x400.png\nhead: Category\ncta-text: Learn more\n\nPhoto booth fam kinfolk cold-pressed sriracha leggings jianbing microdosing tousled \nwaistcoat.\n\n-- end: lib.container-wrapper\n\n-- component blog-1:\ncaption title:\nstring head:\nftd.image-src pic:\nstring cta-text:\nbody body:\n\n-- ftd.column:\nbackground.solid: $inherited.colors.background.step-1\nmax-width.fixed.percent: 25\n\n-- ftd.image:\nsrc: $blog-1.pic\nwidth: fill-container\n\n-- ftd.column:\npadding.px: 24\n\n-- ftd.text: $blog-1.head\nrole: $inherited.types.label-small\ncolor: $inherited.colors.text\nmargin-bottom.px: 4\n\n-- ftd.text: $blog-1.title\nrole: $inherited.types.copy-regular\ncolor: $inherited.colors.text\nmargin-bottom.px: 12\n\n-- ftd.text: $blog-1.body\nrole: $inherited.types.label-large\ncolor: $inherited.colors.text\n\n-- ftd.text: $blog-1.cta-text\nrole: $inherited.types.copy-regular\ncolor: $inherited.colors.text\n\n-- end: ftd.column\n\n-- end: ftd.column\n\n-- end: blog-1","line-number":110,"source":"Body"}},"source":"Body","condition":null,"line-number":110}],"iteration":null,"condition":null,"events":[],"children":[],"line-number":38}],"line-number":35}],"line-number":6}}],"processing_imports":true,"doc_aliases":{"assets":"fastnui.trizwit.com/assets","cb":"fastn-community.github.io/code-block","fastn-cs-tail":"shaheen-senpai.github.io/fastn-cs-tail","ftd":"ftd","index":"fastnui.trizwit.com/index","inherited":"inherited","lib":"fastnui.trizwit.com/lib","opensans-typography":"fastn-community.github.io/opensans-typography"},"re_exports":{"module_things":{},"all_things":[]},"exposings":{},"foreign_variable":[],"foreign_function":[]}}